/*--------------------------------*- C++ -*----------------------------------*\
  =========                 |
  \\      /  F ield         | OpenFOAM: The Open Source CFD Toolbox
   \\    /   O peration     | Website:  https://openfoam.org
    \\  /    A nd           | Version:  9
     \\/     M anipulation  |
\*---------------------------------------------------------------------------*/
FoamFile
{
    format      ascii;
    class       polyBoundaryMesh;
    location    "constant/polyMesh";
    object      boundary;
}
// * * * * * * * * * * * * * * * * * * * * * * * * * * * * * * * * * * * * * //

4
(
    empty
    {
        type            empty;
        physicalType    patch;
        nFaces          2698;
        startFace       18436;
    }
    inlet
    {
        type            patch;
        physicalType    patch;
        nFaces          95;
        startFace       21134;
    }
    fixedwall
    {
        type            wall;
        physicalType    patch;
        nFaces          710;
        startFace       21229;
    }
    outlet
    {
        type            patch;
        physicalType    patch;
        nFaces          95;
        startFace       21939;
    }
)

// ************************************************************************* //
